2qrv
  PyMOL2.5          3D                             0

 26 28  0  0  0  0  0  0  0  0999 V2000
  110.8860   49.1600    2.1250 N   0  0  0  0  0  0  0  0  0  0  0  0
  109.6570   49.4810    1.2710 C   0  0  0  0  0  0  0  0  0  0  0  0
  109.2720   50.9950    1.5190 C   0  0  0  0  0  0  0  0  0  0  0  0
  109.9490   51.7130    2.2820 O   0  0  0  0  0  0  0  0  0  0  0  0
  108.4810   48.5730    1.3600 C   0  0  0  0  0  0  0  0  0  0  0  0
  108.7660   47.1110    1.1180 C   0  0  0  0  0  0  0  0  0  0  0  0
  107.1770   46.3220    1.1160 S   0  0  0  0  0  0  0  0  0  0  0  0
  107.3780   44.9730   -0.0010 C   0  0  0  0  0  0  0  0  0  0  0  0
  107.0390   45.4090   -1.4930 C   0  0  0  0  0  0  0  0  0  0  0  0
  107.0530   44.2210   -2.2550 O   0  0  0  0  0  0  0  0  0  0  0  0
  105.6720   45.9180   -1.7660 C   0  0  0  0  0  0  0  0  0  0  0  0
  105.7290   47.3350   -1.9140 O   0  0  0  0  0  0  0  0  0  0  0  0
  105.1990   45.0610   -3.0280 C   0  0  0  0  0  0  0  0  0  0  0  0
  104.4510   45.8110   -3.9790 O   0  0  0  0  0  0  0  0  0  0  0  0
  106.4940   44.4550   -3.5960 C   0  0  0  0  0  0  0  0  0  0  0  0
  108.2460   51.4010    0.8740 O   0  0  0  0  0  0  0  0  0  0  0  0
  108.4540   42.2210   -7.6520 N   0  0  0  0  0  0  0  0  0  0  0  0
  108.6080   43.5100   -7.2180 C   0  0  0  0  0  0  0  0  0  0  0  0
  107.9840   43.9860   -6.0810 N   0  0  0  0  0  0  0  0  0  0  0  0
  107.1900   43.0730   -5.4330 C   0  0  0  0  0  0  0  0  0  0  0  0
  106.9820   41.7700   -5.8180 C   0  0  0  0  0  0  0  0  0  0  0  0
  107.6720   41.3000   -7.0070 C   0  0  0  0  0  0  0  0  0  0  0  0
  107.6020   40.0680   -7.5040 N   0  0  0  0  0  0  0  0  0  0  0  0
  106.1020   41.1470   -4.9010 N   0  0  0  0  0  0  0  0  0  0  0  0
  105.8370   42.0610   -4.0200 C   0  0  0  0  0  0  0  0  0  0  0  0
  106.4460   43.2770   -4.2340 N   0  0  0  0  0  0  0  0  0  0  0  0
  1  2  1  0  0  0  0
  2  3  1  0  0  0  0
  2  5  1  0  0  0  0
  3  4  4  0  0  0  0
  3 16  4  0  0  0  0
  5  6  1  0  0  0  0
  6  7  1  0  0  0  0
  7  8  1  0  0  0  0
  8  9  1  0  0  0  0
  9 10  1  0  0  0  0
  9 11  1  0  0  0  0
 10 15  1  0  0  0  0
 11 12  1  0  0  0  0
 11 13  1  0  0  0  0
 13 14  1  0  0  0  0
 13 15  1  0  0  0  0
 15 26  1  0  0  0  0
 17 18  4  0  0  0  0
 18 19  4  0  0  0  0
 19 20  4  0  0  0  0
 20 21  4  0  0  0  0
 21 22  4  0  0  0  0
 17 22  4  0  0  0  0
 22 23  1  0  0  0  0
 21 24  4  0  0  0  0
 24 25  4  0  0  0  0
 20 26  4  0  0  0  0
 25 26  4  0  0  0  0
M  END
>  <pdb_header>


$$$$
